BEGIN options
  READASARRAYS
END options

BEGIN period  1
  recharge
    INTERNAL  FACTOR  1.0
    6.87558844E-04  6.87558088E-04  6.87557214E-04  6.87556574E-04       0.00142504       0.00142504       0.00142504       0.00142503  7.02070072E-04  7.02069316E-04  7.02068559E-04  7.02067744E-04  7.03065540E-04       0.00000000       0.00000000       0.00000000  6.26878755E-04  6.26877823E-04  6.26877008E-04  6.26876019E-04
    6.87545806E-04  6.87545049E-04  6.87544234E-04  6.87543477E-04       0.00142502       0.00142502       0.00142502       0.00142502  7.02057150E-04  7.02056393E-04  7.02055579E-04  7.02054822E-04  7.03055761E-04       0.00000000       0.00000000       0.00000000  6.26863330E-04  6.26862515E-04  6.26861583E-04  6.26860536E-04
    6.88174972E-04  6.88174216E-04  6.88173459E-04  6.88172644E-04       0.00142500       0.00142500       0.00142500       0.00142500  7.02044228E-04  7.02043355E-04  7.02042831E-04  7.02041900E-04  7.03045866E-04       0.00000000       0.00000000       0.00000000  6.26848021E-04  6.26847032E-04  6.26846217E-04  6.26845227E-04
    6.88161992E-04  6.88161352E-04  6.88160479E-04  6.88159664E-04       0.00142675       0.00142675       0.00142675       0.00142675  7.03586382E-04  7.03585509E-04  7.03584810E-04  7.03583937E-04  7.11472530E-04       0.00000000       0.00000000       0.00000000  6.26217574E-04  6.26216526E-04  6.26215595E-04  6.26214605E-04
    6.88148895E-04  6.88148371E-04  6.88147557E-04  6.88146683E-04       0.00142673       0.00142673       0.00142673       0.00142673  7.03573169E-04  7.03572412E-04  7.03571772E-04  7.03570957E-04  7.11462810E-04       0.00000000       0.00000000       0.00000000  6.26200519E-04  6.26199471E-04  6.26198424E-04  6.26197434E-04
    6.88135973E-04  6.88135333E-04  6.88134518E-04  6.88133703E-04       0.00142671       0.00142671       0.00142671       0.00142671  7.03560247E-04  7.03559490E-04  7.03558675E-04  7.03557860E-04  7.11453031E-04       0.00000000       0.00000000       0.00000000  6.26183290E-04  6.26182475E-04  6.26181311E-04  6.26180321E-04
    6.86829444E-04  6.88122294E-04  6.88121538E-04  6.88120781E-04       0.00142669       0.00142669       0.00142669       0.00142669  7.03547150E-04  7.03546393E-04  7.03545578E-04  7.03544822E-04  7.11443136E-04       0.00000000       0.00000000       0.00000000  6.26166235E-04  6.26165129E-04  6.26164197E-04  6.26163266E-04
    6.86816347E-04  6.86815649E-04  6.86814892E-04  6.86814019E-04       0.00141979       0.00141979       0.00141979       0.00141979  7.05368817E-04  7.05368002E-04  7.05367187E-04  7.05366372E-04  7.03187776E-04       0.00000000       0.00000000       0.00000000  6.29178423E-04  6.29177433E-04  6.29176386E-04  6.26146037E-04
         0.00149252       0.00149252       0.00149252       0.00149252       0.00000000       0.00000000       0.00000000       0.00000000       0.00000000  5.16305328E-04  5.16304572E-04  5.16303931E-04  5.11506456E-04       0.00000000       0.00000000       0.00000000       0.00144356       0.00144355       0.00144355       0.00144355
         0.00149250       0.00149250       0.00149250       0.00149250       0.00000000       0.00000000       0.00000000       0.00000000       0.00000000  5.16293454E-04  5.16292755E-04  5.16291999E-04  5.11494756E-04       0.00000000       0.00000000       0.00000000       0.00144354       0.00144353       0.00144353       0.00144353
         0.00149248       0.00149248       0.00149248       0.00149248       0.00000000       0.00000000       0.00000000       0.00000000       0.00000000  5.16281638E-04  5.16280823E-04  5.16280124E-04  5.11483056E-04       0.00000000       0.00000000       0.00000000       0.00144352       0.00144351       0.00144351       0.00144351
         0.00148863       0.00148863       0.00148863       0.00148863       0.00000000       0.00000000       0.00000000       0.00000000       0.00000000  5.11627528E-04  5.11626713E-04  5.11625956E-04  5.08910336E-04       0.00000000       0.00000000       0.00000000       0.00144350       0.00144350       0.00144349       0.00144349
         0.00148862       0.00148861       0.00148861       0.00149628       0.00000000       0.00000000       0.00000000       0.00000000       0.00000000  5.11613966E-04  5.11613209E-04  5.11612277E-04  5.08896832E-04       0.00000000       0.00000000       0.00000000       0.00143510       0.00143510       0.00143510       0.00143510
         0.00148860       0.00148860       0.00148859       0.00149627       0.00000000       0.00000000       0.00000000       0.00000000       0.00000000  5.11600345E-04  5.11599588E-04  5.11598715E-04  5.08883270E-04       0.00000000       0.00000000       0.00000000       0.00143508       0.00143508       0.00143508       0.00143508
         0.00140443       0.00140443       0.00140443       0.00141101       0.00000000       0.00000000       0.00000000       0.00000000       0.00000000  5.11586899E-04  5.11586026E-04  5.11585211E-04  5.08869707E-04       0.00000000       0.00000000       0.00000000       0.00143507       0.00143506       0.00143506       0.00143506
         0.00140534       0.00140534       0.00140534       0.00141143       0.00000000       0.00000000       0.00000000       0.00000000       0.00000000  5.07763354E-04  5.07762597E-04  5.07761724E-04  5.06988610E-04       0.00000000       0.00000000       0.00000000       0.00143505       0.00143504       0.00143504       0.00143504
         0.00140532       0.00140532       0.00140532       0.00141141       0.00000000       0.00000000       0.00000000       0.00000000       0.00000000  5.07749792E-04  5.07749035E-04  5.06975921E-04  5.06975222E-04       0.00000000       0.00000000       0.00000000       0.00000000       0.00000000       0.00000000       0.00000000
         0.00140530       0.00140530       0.00140530       0.00141139       0.00000000       0.00000000       0.00000000       0.00000000       0.00000000  5.07736288E-04  5.07735414E-04  5.06962533E-04  5.06961776E-04       0.00000000       0.00000000       0.00000000       0.00000000       0.00000000       0.00000000       0.00000000
         0.00140528       0.00140528       0.00140528       0.00141137       0.00000000       0.00000000       0.00000000       0.00000000       0.00000000  5.07722725E-04  5.07721852E-04  5.06949145E-04  5.06948330E-04       0.00000000       0.00000000       0.00000000       0.00000000       0.00000000       0.00000000       0.00000000
         0.00140850       0.00140850       0.00140850       0.00140981       0.00000000       0.00000000       0.00000000       0.00000000       0.00000000  5.03676827E-04  5.07708290E-04  5.06935758E-04  5.06934884E-04       0.00000000       0.00000000       0.00000000       0.00000000       0.00000000       0.00000000       0.00000000
         0.00140848       0.00140848       0.00140848       0.00140979       0.00000000       0.00000000       0.00000000       0.00000000       0.00000000  5.03663265E-04  5.03662508E-04  5.08758880E-04  5.08758181E-04       0.00000000       0.00000000       0.00000000       0.00000000       0.00000000       0.00000000       0.00000000
         0.00140846       0.00140846       0.00140846       0.00140977       0.00000000       0.00000000       0.00000000       0.00000000       0.00000000  5.03649877E-04  5.03649062E-04  5.08745667E-04  5.08744852E-04       0.00000000       0.00000000       0.00000000       0.00000000       0.00000000       0.00000000       0.00000000
    6.91036112E-04  6.91035297E-04  6.91034482E-04  6.90204208E-04       0.00140975       0.00140975       0.00140975       0.00142000       0.00000000  5.03636315E-04  5.03635500E-04  5.08732279E-04  5.08731522E-04       0.00000000       0.00000000       0.00000000       0.00142469       0.00142469       0.00142469       0.00144433
    6.89540990E-04  6.89540291E-04  6.89539476E-04  6.90539076E-04       0.00140504       0.00140503       0.00140503       0.00141998       0.00000000  5.03622752E-04  5.03622054E-04  5.08719007E-04  5.08718251E-04       0.00000000       0.00000000       0.00000000       0.00142467       0.00142467       0.00142467       0.00144431
    6.89528766E-04  6.89528009E-04  6.89527369E-04  6.90528832E-04       0.00140502       0.00140501       0.00140501       0.00140584       0.00000000  4.96453664E-04  4.96452849E-04  5.03552903E-04  5.03552146E-04       0.00000000       0.00000000       0.00000000       0.00142827       0.00142827       0.00142827       0.00144395
    6.89516601E-04  6.89515902E-04  6.89515204E-04  6.90518646E-04       0.00140500       0.00140500       0.00140499       0.00140582       0.00000000  4.96440160E-04  4.96439345E-04  5.03539457E-04  5.03538584E-04       0.00000000       0.00000000       0.00000000       0.00142825       0.00142825       0.00142825       0.00144393
    6.89504493E-04  6.89503795E-04  6.89502980E-04  6.90508401E-04       0.00140498       0.00140498       0.00140497       0.00140580       0.00000000  4.96426772E-04  4.96425899E-04  5.03526011E-04  5.03525138E-04       0.00000000       0.00000000       0.00000000       0.00142823       0.00142823       0.00142823       0.00144391
    6.86135259E-04  6.86134445E-04  6.86133630E-04  6.90146233E-04       0.00140496       0.00140496       0.00140495       0.00140578       0.00000000  4.96413268E-04  4.96412511E-04  5.03512507E-04  5.03511692E-04       0.00000000       0.00000000       0.00000000       0.00142821       0.00142821       0.00142821       0.00144389
    6.86122803E-04  6.86122105E-04  6.86121290E-04  6.90136978E-04       0.00140097       0.00140097       0.00140096       0.00140468       0.00000000  5.01356786E-04  5.01355971E-04  5.03385207E-04  5.03384450E-04       0.00000000       0.00000000       0.00000000       0.00142842       0.00142842       0.00142841       0.00143913
    6.86110405E-04  6.86109648E-04  6.86108950E-04  6.90127723E-04       0.00140095       0.00140095       0.00140094       0.00140466       0.00000000  5.01343573E-04  5.01342816E-04  5.03372867E-04  5.03372110E-04       0.00000000       0.00000000       0.00000000       0.00142840       0.00142840       0.00142839       0.00143911
         0.00000000       0.00000000       0.00000000       0.00000000       0.00000000       0.00000000       0.00000000       0.00000000       0.00000000  5.01330418E-04  5.01329661E-04  5.03360527E-04  5.03359770E-04       0.00000000       0.00000000       0.00000000       0.00000000       0.00000000       0.00000000       0.00000000
         0.00000000       0.00000000       0.00000000       0.00000000       0.00000000       0.00000000       0.00000000       0.00000000  6.22223306E-04  6.22222433E-04  6.22221560E-04  6.28196169E-04  6.28195237E-04       0.00000000       0.00000000       0.00000000       0.00000000       0.00000000       0.00000000       0.00000000
         0.00000000       0.00000000       0.00000000       0.00000000       0.00000000       0.00000000       0.00000000       0.00000000  6.12852629E-04  6.12851756E-04  6.12850767E-04  6.19776431E-04  6.19775557E-04       0.00000000       0.00000000       0.00000000       0.00000000       0.00000000       0.00000000       0.00000000
         0.00000000       0.00000000       0.00000000       0.00000000       0.00000000       0.00000000       0.00000000       0.00000000  6.12836797E-04  6.12835807E-04  6.12834934E-04  6.19760482E-04  6.19759492E-04       0.00000000       0.00000000       0.00000000       0.00000000       0.00000000       0.00000000       0.00000000
         0.00000000       0.00000000       0.00000000       0.00000000       0.00000000       0.00000000       0.00000000       0.00000000  6.12820906E-04  6.12820033E-04  6.19745522E-04  6.19744475E-04  6.19743543E-04       0.00000000       0.00000000       0.00000000       0.00000000       0.00000000       0.00000000       0.00000000
         0.00000000       0.00000000       0.00000000       0.00000000       0.00000000       0.00000000       0.00000000       0.00000000  6.12805074E-04  6.12804142E-04  6.19729399E-04  6.19728584E-04  6.19727653E-04       0.00000000       0.00000000       0.00000000       0.00000000       0.00000000       0.00000000       0.00000000
         0.00000000       0.00000000       0.00000000       0.00000000       0.00000000       0.00000000       0.00000000       0.00000000  6.21483312E-04  6.21482497E-04  6.17292360E-04  6.17291429E-04  6.17290556E-04       0.00000000       0.00000000       0.00000000       0.00000000       0.00000000       0.00000000       0.00000000
         0.00000000       0.00000000       0.00000000       0.00000000       0.00000000       0.00000000       0.00000000       0.00000000  6.21468993E-04  6.21468178E-04  6.17277634E-04  6.17276819E-04  6.17275946E-04       0.00000000       0.00000000       0.00000000       0.00000000       0.00000000       0.00000000       0.00000000
         0.00000000       0.00000000       0.00000000       0.00000000       0.00000000       0.00000000       0.00000000       0.00000000  6.21454732E-04  6.21453917E-04  6.17263024E-04  6.17262092E-04  6.17261278E-04       0.00000000       0.00000000       0.00000000       0.00000000       0.00000000       0.00000000       0.00000000
         0.00000000       0.00000000       0.00000000       0.00000000       0.00000000       0.00000000       0.00000000       0.00000000       0.00000000       0.00000000       0.00000000       0.00000000       0.00000000       0.00000000       0.00000000       0.00000000       0.00000000       0.00000000       0.00000000       0.00000000
END period  1

BEGIN period  2
  recharge
    INTERNAL  FACTOR  1.0
    6.87558844E-04  6.87558088E-04  6.87557214E-04  6.87556574E-04       0.00142504       0.00142504       0.00142504       0.00142503  7.02070072E-04  7.02069316E-04  7.02068559E-04  7.02067744E-04  7.03065540E-04       0.00000000       0.00000000       0.00000000  6.26878755E-04  6.26877823E-04  6.26877008E-04  6.26876019E-04
    6.87545806E-04  6.87545049E-04  6.87544234E-04  6.87543477E-04       0.00142502       0.00142502       0.00142502       0.00142502  7.02057150E-04  7.02056393E-04  7.02055579E-04  7.02054822E-04  7.03055761E-04       0.00000000       0.00000000       0.00000000  6.26863330E-04  6.26862515E-04  6.26861583E-04  6.26860536E-04
    6.88174972E-04  6.88174216E-04  6.88173459E-04  6.88172644E-04       0.00142500       0.00142500       0.00142500       0.00142500  7.02044228E-04  7.02043355E-04  7.02042831E-04  7.02041900E-04  7.03045866E-04       0.00000000       0.00000000       0.00000000  6.26848021E-04  6.26847032E-04  6.26846217E-04  6.26845227E-04
    6.88161992E-04  6.88161352E-04  6.88160479E-04  6.88159664E-04       0.00142675       0.00142675       0.00142675       0.00142675  7.03586382E-04  7.03585509E-04  7.03584810E-04  7.03583937E-04  7.11472530E-04       0.00000000       0.00000000       0.00000000  6.26217574E-04  6.26216526E-04  6.26215595E-04  6.26214605E-04
    6.88148895E-04  6.88148371E-04  6.88147557E-04  6.88146683E-04       0.00142673       0.00142673       0.00142673       0.00142673  7.03573169E-04  7.03572412E-04  7.03571772E-04  7.03570957E-04  7.11462810E-04       0.00000000       0.00000000       0.00000000  6.26200519E-04  6.26199471E-04  6.26198424E-04  6.26197434E-04
    6.88135973E-04  6.88135333E-04  6.88134518E-04  6.88133703E-04       0.00142671       0.00142671       0.00142671       0.00142671  7.03560247E-04  7.03559490E-04  7.03558675E-04  7.03557860E-04  7.11453031E-04       0.00000000       0.00000000       0.00000000  6.26183290E-04  6.26182475E-04  6.26181311E-04  6.26180321E-04
    6.86829444E-04  6.88122294E-04  6.88121538E-04  6.88120781E-04       0.00142669       0.00142669       0.00142669       0.00142669  7.03547150E-04  7.03546393E-04  7.03545578E-04  7.03544822E-04  7.11443136E-04       0.00000000       0.00000000       0.00000000  6.26166235E-04  6.26165129E-04  6.26164197E-04  6.26163266E-04
    6.86816347E-04  6.86815649E-04  6.86814892E-04  6.86814019E-04       0.00141979       0.00141979       0.00141979       0.00141979  7.05368817E-04  7.05368002E-04  7.05367187E-04  7.05366372E-04  7.03187776E-04       0.00000000       0.00000000       0.00000000  6.29178423E-04  6.29177433E-04  6.29176386E-04  6.26146037E-04
         0.00149252       0.00149252       0.00149252       0.00149252       0.00000000       0.00000000       0.00000000       0.00000000       0.00000000  5.16305328E-04  5.16304572E-04  5.16303931E-04  5.11506456E-04       0.00000000       0.00000000       0.00000000       0.00144356       0.00144355       0.00144355       0.00144355
         0.00149250       0.00149250       0.00149250       0.00149250       0.00000000       0.00000000       0.00000000       0.00000000       0.00000000  5.16293454E-04  5.16292755E-04  5.16291999E-04  5.11494756E-04       0.00000000       0.00000000       0.00000000       0.00144354       0.00144353       0.00144353       0.00144353
         0.00149248       0.00149248       0.00149248       0.00149248       0.00000000       0.00000000       0.00000000       0.00000000       0.00000000  5.16281638E-04  5.16280823E-04  5.16280124E-04  5.11483056E-04       0.00000000       0.00000000       0.00000000       0.00144352       0.00144351       0.00144351       0.00144351
         0.00148863       0.00148863       0.00148863       0.00148863       0.00000000       0.00000000       0.00000000       0.00000000       0.00000000  5.11627528E-04  5.11626713E-04  5.11625956E-04  5.08910336E-04       0.00000000       0.00000000       0.00000000       0.00144350       0.00144350       0.00144349       0.00144349
         0.00148862       0.00148861       0.00148861       0.00149628       0.00000000       0.00000000       0.00000000       0.00000000       0.00000000  5.11613966E-04  5.11613209E-04  5.11612277E-04  5.08896832E-04       0.00000000       0.00000000       0.00000000       0.00143510       0.00143510       0.00143510       0.00143510
         0.00148860       0.00148860       0.00148859       0.00149627       0.00000000       0.00000000       0.00000000       0.00000000       0.00000000  5.11600345E-04  5.11599588E-04  5.11598715E-04  5.08883270E-04       0.00000000       0.00000000       0.00000000       0.00143508       0.00143508       0.00143508       0.00143508
         0.00140443       0.00140443       0.00140443       0.00141101       0.00000000       0.00000000       0.00000000       0.00000000       0.00000000  5.11586899E-04  5.11586026E-04  5.11585211E-04  5.08869707E-04       0.00000000       0.00000000       0.00000000       0.00143507       0.00143506       0.00143506       0.00143506
         0.00140534       0.00140534       0.00140534       0.00141143       0.00000000       0.00000000       0.00000000       0.00000000       0.00000000  5.07763354E-04  5.07762597E-04  5.07761724E-04  5.06988610E-04       0.00000000       0.00000000       0.00000000       0.00143505       0.00143504       0.00143504       0.00143504
         0.00140532       0.00140532       0.00140532       0.00141141       0.00000000       0.00000000       0.00000000       0.00000000       0.00000000  5.07749792E-04  5.07749035E-04  5.06975921E-04  5.06975222E-04       0.00000000       0.00000000       0.00000000       0.00000000       0.00000000       0.00000000       0.00000000
         0.00140530       0.00140530       0.00140530       0.00141139       0.00000000       0.00000000       0.00000000       0.00000000       0.00000000  5.07736288E-04  5.07735414E-04  5.06962533E-04  5.06961776E-04       0.00000000       0.00000000       0.00000000       0.00000000       0.00000000       0.00000000       0.00000000
         0.00140528       0.00140528       0.00140528       0.00141137       0.00000000       0.00000000       0.00000000       0.00000000       0.00000000  5.07722725E-04  5.07721852E-04  5.06949145E-04  5.06948330E-04       0.00000000       0.00000000       0.00000000       0.00000000       0.00000000       0.00000000       0.00000000
         0.00140850       0.00140850       0.00140850       0.00140981       0.00000000       0.00000000       0.00000000       0.00000000       0.00000000  5.03676827E-04  5.07708290E-04  5.06935758E-04  5.06934884E-04       0.00000000       0.00000000       0.00000000       0.00000000       0.00000000       0.00000000       0.00000000
         0.00140848       0.00140848       0.00140848       0.00140979       0.00000000       0.00000000       0.00000000       0.00000000       0.00000000  5.03663265E-04  5.03662508E-04  5.08758880E-04  5.08758181E-04       0.00000000       0.00000000       0.00000000       0.00000000       0.00000000       0.00000000       0.00000000
         0.00140846       0.00140846       0.00140846       0.00140977       0.00000000       0.00000000       0.00000000       0.00000000       0.00000000  5.03649877E-04  5.03649062E-04  5.08745667E-04  5.08744852E-04       0.00000000       0.00000000       0.00000000       0.00000000       0.00000000       0.00000000       0.00000000
    6.91036112E-04  6.91035297E-04  6.91034482E-04  6.90204208E-04       0.00140975       0.00140975       0.00140975       0.00142000       0.00000000  5.03636315E-04  5.03635500E-04  5.08732279E-04  5.08731522E-04       0.00000000       0.00000000       0.00000000       0.00142469       0.00142469       0.00142469       0.00144433
    6.89540990E-04  6.89540291E-04  6.89539476E-04  6.90539076E-04       0.00140504       0.00140503       0.00140503       0.00141998       0.00000000  5.03622752E-04  5.03622054E-04  5.08719007E-04  5.08718251E-04       0.00000000       0.00000000       0.00000000       0.00142467       0.00142467       0.00142467       0.00144431
    6.89528766E-04  6.89528009E-04  6.89527369E-04  6.90528832E-04       0.00140502       0.00140501       0.00140501       0.00140584       0.00000000  4.96453664E-04  4.96452849E-04  5.03552903E-04  5.03552146E-04       0.00000000       0.00000000       0.00000000       0.00142827       0.00142827       0.00142827       0.00144395
    6.89516601E-04  6.89515902E-04  6.89515204E-04  6.90518646E-04       0.00140500       0.00140500       0.00140499       0.00140582       0.00000000  4.96440160E-04  4.96439345E-04  5.03539457E-04  5.03538584E-04       0.00000000       0.00000000       0.00000000       0.00142825       0.00142825       0.00142825       0.00144393
    6.89504493E-04  6.89503795E-04  6.89502980E-04  6.90508401E-04       0.00140498       0.00140498       0.00140497       0.00140580       0.00000000  4.96426772E-04  4.96425899E-04  5.03526011E-04  5.03525138E-04       0.00000000       0.00000000       0.00000000       0.00142823       0.00142823       0.00142823       0.00144391
    6.86135259E-04  6.86134445E-04  6.86133630E-04  6.90146233E-04       0.00140496       0.00140496       0.00140495       0.00140578       0.00000000  4.96413268E-04  4.96412511E-04  5.03512507E-04  5.03511692E-04       0.00000000       0.00000000       0.00000000       0.00142821       0.00142821       0.00142821       0.00144389
    6.86122803E-04  6.86122105E-04  6.86121290E-04  6.90136978E-04       0.00140097       0.00140097       0.00140096       0.00140468       0.00000000  5.01356786E-04  5.01355971E-04  5.03385207E-04  5.03384450E-04       0.00000000       0.00000000       0.00000000       0.00142842       0.00142842       0.00142841       0.00143913
    6.86110405E-04  6.86109648E-04  6.86108950E-04  6.90127723E-04       0.00140095       0.00140095       0.00140094       0.00140466       0.00000000  5.01343573E-04  5.01342816E-04  5.03372867E-04  5.03372110E-04       0.00000000       0.00000000       0.00000000       0.00142840       0.00142840       0.00142839       0.00143911
         0.00000000       0.00000000       0.00000000       0.00000000       0.00000000       0.00000000       0.00000000       0.00000000       0.00000000  5.01330418E-04  5.01329661E-04  5.03360527E-04  5.03359770E-04       0.00000000       0.00000000       0.00000000       0.00000000       0.00000000       0.00000000       0.00000000
         0.00000000       0.00000000       0.00000000       0.00000000       0.00000000       0.00000000       0.00000000       0.00000000  6.22223306E-04  6.22222433E-04  6.22221560E-04  6.28196169E-04  6.28195237E-04       0.00000000       0.00000000       0.00000000       0.00000000       0.00000000       0.00000000       0.00000000
         0.00000000       0.00000000       0.00000000       0.00000000       0.00000000       0.00000000       0.00000000       0.00000000  6.12852629E-04  6.12851756E-04  6.12850767E-04  6.19776431E-04  6.19775557E-04       0.00000000       0.00000000       0.00000000       0.00000000       0.00000000       0.00000000       0.00000000
         0.00000000       0.00000000       0.00000000       0.00000000       0.00000000       0.00000000       0.00000000       0.00000000  6.12836797E-04  6.12835807E-04  6.12834934E-04  6.19760482E-04  6.19759492E-04       0.00000000       0.00000000       0.00000000       0.00000000       0.00000000       0.00000000       0.00000000
         0.00000000       0.00000000       0.00000000       0.00000000       0.00000000       0.00000000       0.00000000       0.00000000  6.12820906E-04  6.12820033E-04  6.19745522E-04  6.19744475E-04  6.19743543E-04       0.00000000       0.00000000       0.00000000       0.00000000       0.00000000       0.00000000       0.00000000
         0.00000000       0.00000000       0.00000000       0.00000000       0.00000000       0.00000000       0.00000000       0.00000000  6.12805074E-04  6.12804142E-04  6.19729399E-04  6.19728584E-04  6.19727653E-04       0.00000000       0.00000000       0.00000000       0.00000000       0.00000000       0.00000000       0.00000000
         0.00000000       0.00000000       0.00000000       0.00000000       0.00000000       0.00000000       0.00000000       0.00000000  6.21483312E-04  6.21482497E-04  6.17292360E-04  6.17291429E-04  6.17290556E-04       0.00000000       0.00000000       0.00000000       0.00000000       0.00000000       0.00000000       0.00000000
         0.00000000       0.00000000       0.00000000       0.00000000       0.00000000       0.00000000       0.00000000       0.00000000  6.21468993E-04  6.21468178E-04  6.17277634E-04  6.17276819E-04  6.17275946E-04       0.00000000       0.00000000       0.00000000       0.00000000       0.00000000       0.00000000       0.00000000
         0.00000000       0.00000000       0.00000000       0.00000000       0.00000000       0.00000000       0.00000000       0.00000000  6.21454732E-04  6.21453917E-04  6.17263024E-04  6.17262092E-04  6.17261278E-04       0.00000000       0.00000000       0.00000000       0.00000000       0.00000000       0.00000000       0.00000000
         0.00000000       0.00000000       0.00000000       0.00000000       0.00000000       0.00000000       0.00000000       0.00000000       0.00000000       0.00000000       0.00000000       0.00000000       0.00000000       0.00000000       0.00000000       0.00000000       0.00000000       0.00000000       0.00000000       0.00000000
END period  2

BEGIN period  3
  recharge
    INTERNAL  FACTOR  1.0
    6.87558844E-04  6.87558088E-04  6.87557214E-04  6.87556574E-04       0.00142504       0.00142504       0.00142504       0.00142503  7.02070072E-04  7.02069316E-04  7.02068559E-04  7.02067744E-04  7.03065540E-04       0.00000000       0.00000000       0.00000000  6.26878755E-04  6.26877823E-04  6.26877008E-04  6.26876019E-04
    6.87545806E-04  6.87545049E-04  6.87544234E-04  6.87543477E-04       0.00142502       0.00142502       0.00142502       0.00142502  7.02057150E-04  7.02056393E-04  7.02055579E-04  7.02054822E-04  7.03055761E-04       0.00000000       0.00000000       0.00000000  6.26863330E-04  6.26862515E-04  6.26861583E-04  6.26860536E-04
    6.88174972E-04  6.88174216E-04  6.88173459E-04  6.88172644E-04       0.00142500       0.00142500       0.00142500       0.00142500  7.02044228E-04  7.02043355E-04  7.02042831E-04  7.02041900E-04  7.03045866E-04       0.00000000       0.00000000       0.00000000  6.26848021E-04  6.26847032E-04  6.26846217E-04  6.26845227E-04
    6.88161992E-04  6.88161352E-04  6.88160479E-04  6.88159664E-04       0.00142675       0.00142675       0.00142675       0.00142675  7.03586382E-04  7.03585509E-04  7.03584810E-04  7.03583937E-04  7.11472530E-04       0.00000000       0.00000000       0.00000000  6.26217574E-04  6.26216526E-04  6.26215595E-04  6.26214605E-04
    6.88148895E-04  6.88148371E-04  6.88147557E-04  6.88146683E-04       0.00142673       0.00142673       0.00142673       0.00142673  7.03573169E-04  7.03572412E-04  7.03571772E-04  7.03570957E-04  7.11462810E-04       0.00000000       0.00000000       0.00000000  6.26200519E-04  6.26199471E-04  6.26198424E-04  6.26197434E-04
    6.88135973E-04  6.88135333E-04  6.88134518E-04  6.88133703E-04       0.00142671       0.00142671       0.00142671       0.00142671  7.03560247E-04  7.03559490E-04  7.03558675E-04  7.03557860E-04  7.11453031E-04       0.00000000       0.00000000       0.00000000  6.26183290E-04  6.26182475E-04  6.26181311E-04  6.26180321E-04
    6.86829444E-04  6.88122294E-04  6.88121538E-04  6.88120781E-04       0.00142669       0.00142669       0.00142669       0.00142669  7.03547150E-04  7.03546393E-04  7.03545578E-04  7.03544822E-04  7.11443136E-04       0.00000000       0.00000000       0.00000000  6.26166235E-04  6.26165129E-04  6.26164197E-04  6.26163266E-04
    6.86816347E-04  6.86815649E-04  6.86814892E-04  6.86814019E-04       0.00141979       0.00141979       0.00141979       0.00141979  7.05368817E-04  7.05368002E-04  7.05367187E-04  7.05366372E-04  7.03187776E-04       0.00000000       0.00000000       0.00000000  6.29178423E-04  6.29177433E-04  6.29176386E-04  6.26146037E-04