BEGIN options
  UNIT_CONVERSION   86400.00000000
END options

BEGIN dimensions
  NREACHES  40
END dimensions

BEGIN packagedata
  1  1 1 15     250.00000000      10.00000000       0.00100000      24.87500000       1.00000000       0.10000000  0.1  1       1.00000000  0
  2  1 2 15     250.00000000      10.00000000       0.00100000      24.62500000       1.00000000       0.10000000  0.1  2       1.00000000  0
  3  1 3 15     250.00000000      10.00000000       0.00100000      24.37500000       1.00000000       0.10000000  0.1  2       1.00000000  0
  4  1 4 15     250.00000000      10.00000000       0.00100000      24.12500000       1.00000000       0.10000000  0.1  2       1.00000000  0
  5  1 5 15     250.00000000      10.00000000       0.00100000      23.87500000       1.00000000       0.10000000  0.1  2       1.00000000  0
  6  1 6 15     250.00000000      10.00000000       0.00100000      23.62500000       1.00000000       0.10000000  0.1  2       1.00000000  0
  7  1 7 15     250.00000000      10.00000000       0.00100000      23.37500000       1.00000000       0.10000000  0.1  2       1.00000000  0
  8  1 8 15     250.00000000      10.00000000       0.00100000      23.12500000       1.00000000       0.10000000  0.1  2       1.00000000  0
  9  1 9 15     250.00000000      10.00000000       0.00100000      22.87500000       1.00000000       0.10000000  0.1  2       1.00000000  0
  10  1 10 15     250.00000000      10.00000000       0.00100000      22.62500000       1.00000000       0.10000000  0.1  2       1.00000000  0
  11  1 11 15     250.00000000      10.00000000       0.00100000      22.37500000       1.00000000       0.10000000  0.1  2       1.00000000  0
  12  1 12 15     250.00000000      10.00000000       0.00100000      22.12500000       1.00000000       0.10000000  0.1  2       1.00000000  0
  13  1 13 15     250.00000000      10.00000000       0.00100000      21.87500000       1.00000000       0.10000000  0.1  2       1.00000000  0
  14  1 14 15     250.00000000      10.00000000       0.00100000      21.62500000       1.00000000       0.10000000  0.1  2       1.00000000  0
  15  1 15 15     250.00000000      10.00000000       0.00100000      21.37500000       1.00000000       0.10000000  0.1  2       1.00000000  0
  16  1 16 15     250.00000000      10.00000000       0.00100000      21.12500000       1.00000000       0.10000000  0.1  2       1.00000000  0
  17  1 17 15     250.00000000      10.00000000       0.00100000      20.87500000       1.00000000       0.10000000  0.1  2       1.00000000  0
  18  1 18 15     250.00000000      10.00000000       0.00100000      20.62500000       1.00000000       0.10000000  0.1  2       1.00000000  0
  19  1 19 15     250.00000000      10.00000000       0.00100000      20.37500000       1.00000000       0.10000000  0.1  2       1.00000000  0
  20  1 20 15     250.00000000      10.00000000       0.00100000      20.12500000       1.00000000       0.10000000  0.1  2       1.00000000  0
  21  1 21 15     250.00000000      10.00000000       0.00100000      19.87500000       1.00000000       0.10000000  0.1  2       1.00000000  0
  22  1 22 15     250.00000000      10.00000000       0.00100000      19.62500000       1.00000000       0.10000000  0.1  2       1.00000000  0
  23  1 23 15     250.00000000      10.00000000       0.00100000      19.37500000       1.00000000       0.10000000  0.1  2       1.00000000  0
  24  1 24 15     250.00000000      10.00000000       0.00100000      19.12500000       1.00000000       0.10000000  0.1  2       1.00000000  0
  25  1 25 15     250.00000000      10.00000000       0.00100000      18.87500000       1.00000000       0.10000000  0.1  2       1.00000000  0
  26  1 26 15     250.00000000      10.00000000       0.00100000      18.62500000       1.00000000       0.10000000  0.1  2       1.00000000  0
  27  1 27 15     250.00000000      10.00000000       0.00100000      18.37500000       1.00000000       0.10000000  0.1  2       1.00000000  0
  28  1 28 15     250.00000000      10.00000000       0.00100000      18.12500000       1.00000000       0.10000000  0.1  2       1.00000000  0
  29  1 29 15     250.00000000      10.00000000       0.00100000      17.87500000       1.00000000       0.10000000  0.1  2       1.00000000  0
  30  1 30 15     250.00000000      10.00000000       0.00100000      17.62500000       1.00000000       0.10000000  0.1  2       1.00000000  0
  31  1 31 15     250.00000000      10.00000000       0.00100000      17.37500000       1.00000000       0.10000000  0.1  2       1.00000000  0
  32  1 32 15     250.00000000      10.00000000       0.00100000      17.12500000       1.00000000       0.10000000  0.1  2       1.00000000  0
  33  1 33 15     250.00000000      10.00000000       0.00100000      16.87500000       1.00000000       0.10000000  0.1  2       1.00000000  0
  34  1 34 15     250.00000000      10.00000000       0.00100000      16.62500000       1.00000000       0.10000000  0.1  2       1.00000000  0
  35  1 35 15     250.00000000      10.00000000       0.00100000      16.37500000       1.00000000       0.10000000  0.1  2       1.00000000  0
  36  1 36 15     250.00000000      10.00000000       0.00100000      16.12500000       1.00000000       0.10000000  0.1  2       1.00000000  0
  37  1 37 15     250.00000000      10.00000000       0.00100000      15.87500000       1.00000000       0.10000000  0.1  2       1.00000000  0
  38  1 38 15     250.00000000      10.00000000       0.00100000      15.62500000       1.00000000       0.10000000  0.1  2       1.00000000  0
  39  1 39 15     250.00000000      10.00000000       0.00100000      15.37500000       1.00000000       0.10000000  0.1  2       1.00000000  0
  40  1 40 15     250.00000000      10.00000000       0.00100000      15.12500000       1.00000000       0.10000000  0.1  1       1.00000000  0
END packagedata

BEGIN connectiondata
  1  -2
  2  -3  1
  3  -4  2
  4  -5  3
  5  -6  4
  6  -7  5
  7  -8  6
  8  -9  7
  9  -10  8
  10  -11  9
  11  -12  10
  12  -13  11
  13  -14  12
  14  -15  13
  15  -16  14
  16  -17  15
  17  -18  16
  18  -19  17
  19  -20  18
  20  -21  19
  21  -22  20
  22  -23  21
  23  -24  22
  24  -25  23
  25  -26  24
  26  -27  25
  27  -28  26
  28  -29  27
  29  -30  28
  30  -31  29
  31  -32  30
  32  -33  31
  33  -34  32
  34  -35  33
  35  -36  34
  36  -37  35
  37  -38  36
  38  -39  37
  39  -40  38
  40  39
END connectiondata

