BEGIN options
  TIME_UNITS  days
END options

BEGIN dimensions
  NPER  3
END dimensions

BEGIN perioddata
       1.00000000  1       1.00000000
     365.25000000  1       1.00000000
       1.00000000  1       1.00000000
END perioddata

