BEGIN options
  PRINT_INPUT
END options

BEGIN dimensions
  MAXBOUND  8
END dimensions

BEGIN period  1
  1 5 3   -1599.45227051
  1 5 11   -1999.31530762
  1 5 19   -1321.28674316
  1 11 3   -1251.74548340
  1 19 3   -1182.20410156
  1 27 3   -1660.30126953
  1 27 7   -1182.20410156
  1 35 11   -1664.64746094
END period  1

BEGIN period  2
  1 5 3   -1599.45227051
  1 5 11   -1999.31530762
  1 5 19   -1321.28674316
  1 11 3   -1251.74548340
  1 19 3   -1182.20410156
  1 27 3   -1660.30126953
  1 27 7   -1182.20410156
  1 35 11   -1664.64746094
END period  2

BEGIN period  3
  1 5 3   -1599.45227051
  1 5 11   -1999.31530762
  1 5 19   -1321.28674316
  1 11 3   -1251.74548340
  1 19 3   -1182.20410156
  1 27 3   -1660.30126953
  1 27 7   -1182.20410156
  1 35 11   -1664.64746094
END period  3

