BEGIN options
END options

BEGIN dimensions
  MAXBOUND  10
END dimensions

BEGIN period  1
  1 40 6      16.90000000
  1 40 7      16.40000000
  1 40 8      16.10000000
  1 40 9      15.60000000
  1 40 10      15.10000000
  1 40 11      14.00000000
  1 40 12      13.00000000
  1 40 13      12.50000000
  1 40 14      12.00000000
  1 40 15      11.40000000
END period  1

BEGIN period  2
  1 40 6      16.90000000
  1 40 7      16.40000000
  1 40 8      16.10000000
  1 40 9      15.60000000
  1 40 10      15.10000000
  1 40 11      14.00000000
  1 40 12      13.00000000
  1 40 13      12.50000000
  1 40 14      12.00000000
  1 40 15      11.40000000
END period  2

BEGIN period  3
  1 40 6      16.90000000
  1 40 7      16.40000000
  1 40 8      16.10000000
  1 40 9      15.60000000
  1 40 10      15.10000000
  1 40 11      14.00000000
  1 40 12      13.00000000
  1 40 13      12.50000000
  1 40 14      12.00000000
  1 40 15      11.40000000
END period  3

