BEGIN options
  XT3D
  SAVE_SPECIFIC_DISCHARGE
END options

BEGIN griddata
  icelltype
    CONSTANT  1
  k
    INTERNAL  FACTOR  1.0
        12.54442000      12.21091000      12.46752000       9.58608000       9.73728000      10.25914000       9.10138000       9.92390000      10.49414000       8.99078000       7.99200000       8.24005000       7.86007000      10.04918000       9.70272000       9.16358000       9.83232000       9.89539000       9.68458000       9.56621000
        12.84941000      12.78806000       9.02966000      10.00771000       9.11434000       9.57830000       9.14371000       9.77443000      10.29629000       8.51628000       7.94474000       8.70912000       7.98137000       9.06336000      10.30320000       9.29405000       7.05162000       9.84010000      10.11917000       8.79379000
        12.19622000      13.74451000       9.40896000       9.73642000       9.98352000       9.56880000       9.45302000      10.01549000       8.97005000       7.72727000       7.46893000       7.56726000       7.41977000      10.29542000       9.09965000       9.82368000       7.11271000       9.21542000       9.50054000       8.59982000
         9.28454000       8.10104000       9.98266000      10.23235000       9.75974000       9.82109000       9.31133000       9.31651000       9.53597000       7.79967000       7.37476000       8.16497000       8.07278000       8.71085000       8.51887000       7.07962000       7.34754000       9.80467000       9.16877000       9.29664000
         9.33206000       8.28792000       9.59126000       9.79862000      10.51661000       9.66989000       7.68692000       7.92046000       8.34088000       7.62013000       8.28645000       8.27375000       7.62765000       9.46771000       9.06336000       6.64606000       7.54246000       8.68752000       9.83146000       8.65814000
         9.55066000       7.17941000       8.51265000       7.99692000       7.04117000       7.92953000       7.59940000       7.94612000       8.14856000       7.47464000       7.59577000       7.90819000       8.17422000       9.53510000       8.54574000       7.49926000       8.15080000       9.47290000       9.40205000       8.74627000
         9.76234000       7.97351000       8.02233000       7.05508000       6.85783000       7.72010000       7.54834000       7.54091000       7.84417000       8.00453000       6.21942000       6.99218000       7.61573000       7.60139000       6.97015000       8.15901000       8.28939000       7.71854000       7.65703000       9.91526000
         9.42106000       7.77030000       8.14164000       9.81590000       9.43920000       9.39427000       9.72000000       6.91295000       7.51291000       7.46453000       5.82613000       7.29112000       8.40525000       7.87406000       7.92176000       8.60622000       7.00298000       7.28352000       8.44612000       9.36144000
        10.21680000       7.22321000       7.63698000      10.18656000       0.00000000       0.00000000       0.00000000       9.34502000       7.79751000       7.31618000       5.55854000       7.43437000       7.44492000       7.83060000       7.87467000       7.72813000       7.28637000       8.40326000       7.83225000      10.13645000
         9.32602000       8.19469000       7.88227000       9.35194000       0.00000000       0.00000000       0.00000000       0.00000000      10.03795000       7.31125000       6.45227000       7.33372000       7.16403000       7.51896000       7.93964000       8.07356000       8.67542000       7.67958000       8.12203000       9.85478000
        10.09325000       7.28568000       7.27816000       8.76355000       0.00000000       0.00000000       0.00000000       0.00000000       9.00115000       7.84875000       5.25502000       5.52476000       5.96627000       7.60035000       7.96245000       6.93706000       8.04799000       6.66317000       8.01973000       7.22727000
        10.12608000       8.25310000       7.66428000       8.71776000       0.00000000       0.00000000       0.00000000       0.00000000       9.42106000       7.77799000       6.34971000       6.51845000       6.02234000       6.96229000       8.03745000       5.39231000       9.02102000       7.05301000       7.94552000       8.92166000
         9.25430000       8.35972000       7.44448000       9.26640000       0.00000000       0.00000000       0.00000000       0.00000000       9.57226000       7.77349000       5.28172000       8.00271000       7.20766000       8.19582000       7.89031000       7.67051000       7.33501000       7.92271000       6.98293000       7.38582000
         9.37440000       7.58177000       7.02968000      10.21248000       0.00000000       0.00000000       0.00000000       0.00000000       8.96746000       7.57607000       6.07850000       5.95477000       5.70413000       7.90197000       8.62523000       6.78421000       8.38996000       7.51067000       8.59386000       7.51378000
         9.51350000       7.41372000       7.53132000      10.41898000       0.00000000       0.00000000       0.00000000       0.00000000       7.65660000       7.32240000       4.84756000       6.49918000       6.18857000       6.01646000       6.02191000       6.32362000       6.04938000       7.16852000       7.68226000      10.18483000
         8.93030000       7.94232000       7.98923000       9.09619000       0.00000000       0.00000000       0.00000000       0.00000000       7.63906000       5.81455000       4.10072000       5.67873000       6.28871000       6.04377000       6.21553000       5.86017000       6.64200000       8.16808000       8.09594000       9.10483000
         9.96883000       7.90785000       7.91916000       9.70186000       0.00000000       0.00000000       0.00000000       0.00000000       6.96306000       6.32137000       4.20396000       6.51516000       6.17941000       6.26331000       5.80824000       5.40587000       5.64512000       7.73885000       7.80866000      10.23494000
         9.40896000       7.24308000       8.23314000       8.90006000       0.00000000       0.00000000       0.00000000       0.00000000       7.13223000       6.68088000       4.54680000       4.91037000       6.31126000       6.20715000       6.36716000       6.62973000       6.27981000       7.40828000       7.69608000       9.73123000
         9.43142000       8.03269000       8.18459000       8.97437000       0.00000000       0.00000000       0.00000000       0.00000000       7.04964000       5.60641000       4.71208000       3.51035000       5.16266000       6.10960000       6.52139000       6.56294000       5.87503000       7.61193000       8.70134000       9.62842000
         9.47894000       7.96228000       7.23885000       9.62842000       0.00000000       0.00000000       0.00000000       0.00000000       8.45389000       6.41244000       4.12741000       3.88541000       5.11825000       6.05820000       6.04273000       6.55914000       5.95529000       7.58609000       7.53624000       9.67507000
         9.99043000       7.28179000       7.89126000      10.54512000       0.00000000       0.00000000       0.00000000       0.00000000       7.75094000       6.00782000       4.31810000       4.49202000       3.30195000       6.83657000       6.04549000       5.95477000       5.80755000       6.93645000       7.15859000       9.41155000
         9.56189000       7.84331000       8.32265000      10.06301000       0.00000000       0.00000000       9.77443000       9.54029000       7.69729000       6.14321000       4.42714000       3.56728000       4.20569000       5.94916000       6.26426000       5.70266000       6.20447000       8.14821000       7.62057000       8.92166000
         9.19123000       7.87303000       7.15522000       9.93082000       9.42538000       0.00000000       9.79862000       7.25147000       7.46211000       5.81783000       4.12949000       3.90519000       3.37012000       6.61971000       6.11721000       6.36397000       4.61290000       6.70464000       7.49969000       9.45907000
         9.80986000       8.23919000       7.54160000       7.63733000       8.88019000       9.50400000       8.41329000       7.31955000       8.56837000       6.23091000       4.37625000       4.53773000       4.05968000       6.28957000       6.42522000       4.45625000       6.53141000       5.99262000       8.21966000       7.71085000
         9.78394000       7.95468000       7.92253000       8.00436000       7.93558000       7.85566000       7.70368000       7.18347000       5.63086000       6.68166000       4.55155000       4.44295000       3.59104000       5.82085000       6.59949000       4.11601000       6.14339000       6.55016000       8.08186000       8.12989000
         9.86861000       7.88383000       8.28740000       5.81956000       7.87769000       7.30201000       7.70956000       8.20472000       6.00359000       6.04947000       4.15817000       4.27455000       4.11273000       6.70861000       6.52069000       4.14763000       6.67820000       6.82370000       8.15711000       7.64191000
        10.15200000       7.23937000       8.56138000       7.92003000       5.73653000       7.55585000       7.76796000       5.62196000       5.93965000       4.50973000       1.48504000       4.62646000       3.98563000       4.23792000       4.30721000       3.90407000       5.34643000       5.41512000       6.30556000       8.20040000
         8.74454000       9.28714000       7.24594000       7.66644000       7.97627000       7.17448000       5.27628000       4.73221000       5.95840000       3.41220000       3.45349000       4.21865000       4.37089000       4.04637000       4.23317000       3.91375000       4.51025000       6.07219000       6.20793000       6.83061000
         9.05386000       9.54547000       7.85627000       7.81384000       8.35376000       6.35420000       4.88661000       1.14834000       6.01076000       5.27878000       2.80956000       4.70249000       4.51379000       3.70492000       4.68936000       2.32649000       4.04145000       4.19109000       6.38176000       6.65340000
         8.83958000      10.07856000       8.41657000       8.45148000       8.63179000       6.57659000       1.37402000       1.60980000       1.34827000       2.86088000       2.15309000       4.30497000       4.70629000       4.06218000       4.38817000       2.34887000       3.24380000       4.34791000       4.47051000       5.21571000
         9.57398000       7.36577000       7.35774000       7.96375000       6.26953000       3.38809000       2.55640000       1.70027000       2.84005000       2.13641000       2.70225000       4.17597000       4.75191000       4.32078000       2.88161000       1.39951000       2.28684000       1.80688000       3.99876000       4.16897000
         9.44093000       7.44949000       7.52077000       7.82896000       8.30883000       5.72797000       0.75259000       2.39414000       2.47899000       3.09226000       2.30273000       2.92948000       4.73636000       4.61609000       1.58700000       1.60540000       2.11334000       1.87860000       4.47941000       4.97318000
         0.00000000       7.87692000       7.63007000       7.74680000       7.61944000       7.42980000       5.95797000       4.12620000       0.34694000       2.29262000       2.12674000       1.73560000       1.59529000       5.18210000       4.34782000       3.90442000       2.22955000       3.94839000       4.12223000       6.48000000
         0.00000000       0.00000000       7.03469000       7.73600000       8.43515000       5.66361000       6.15980000       4.55518000       3.40312000       3.29711000       2.15188000       2.19171000       1.53274000       4.42273000       3.78786000       4.39776000       3.67848000       4.95642000       5.74154000       7.81341000
         0.00000000       0.00000000       0.00000000       5.71821000       6.60493000       5.58524000       5.26798000       6.68667000       3.46922000       2.27258000       1.91860000       1.24209000       3.35379000       3.95574000       4.22531000       4.66163000       4.28190000       4.01034000       6.63068000       7.64960000
         0.00000000       0.00000000       0.00000000       0.00000000       6.43568000       6.40803000       6.15790000       4.52451000       4.22124000       1.37264000       2.19966000       1.82580000       2.32580000       4.64365000       4.29252000       4.04533000       4.07125000       5.76625000       8.75578000       0.00000000
         0.00000000       0.00000000       0.00000000       0.00000000       7.53434000       6.19868000       5.59328000       4.67735000       4.43750000       2.23638000       2.27033000       2.56599000       1.75660000       4.46282000       3.53730000       4.40225000       6.42272000       6.14477000       7.60752000       0.00000000
         0.00000000       0.00000000       0.00000000       0.00000000       0.00000000       6.43101000       5.95987000       4.13122000       5.37244000       1.37428000       1.76178000       2.34861000       1.49178000       1.79988000       2.46637000       4.71208000       4.38454000       5.45115000       0.00000000       0.00000000
         0.00000000       0.00000000       0.00000000       0.00000000       0.00000000       5.94380000       6.80426000       5.64546000       4.54300000       2.01442000       2.10747000       2.52720000       2.37816000       1.55244000       2.82191000       3.66647000       5.47992000       0.00000000       0.00000000       0.00000000
         0.00000000       0.00000000       0.00000000       0.00000000       0.00000000       8.18649000       4.59225000       4.41392000       2.28010000       2.47320000       2.06375000       1.39104000       1.54613000       1.31224000       3.98848000       0.00000000       0.00000000       0.00000000       0.00000000       0.00000000
  k33
    INTERNAL  FACTOR  1.0
         1.25444200       1.22109100       1.24675200       0.95860800       0.97372800       1.02591400       0.91013800       0.99239000       1.04941400       0.89907800       0.79920000       0.82400500       0.78600700       1.00491800       0.97027200       0.91635800       0.98323200       0.98953900       0.96845800       0.95662100
         1.28494100       1.27880600       0.90296600       1.00077100       0.91143400       0.95783000       0.91437100       0.97744300       1.02962900       0.85162800       0.79447400       0.87091200       0.79813700       0.90633600       1.03032000       0.92940500       0.70516200       0.98401000       1.01191700       0.87937900
         1.21962200       1.37445100       0.94089600       0.97364200       0.99835200       0.95688000       0.94530200       1.00154900       0.89700500       0.77272700       0.74689300       0.75672600       0.74197700       1.02954200       0.90996500       0.98236800       0.71127100       0.92154200       0.95005400       0.85998200
         0.92845400       0.81010400       0.99826600       1.02323500       0.97597400       0.98210900       0.93113300       0.93165100       0.95359700       0.77996700       0.73747600       0.81649700       0.80727800       0.87108500       0.85188700       0.70796200       0.73475400       0.98046700       0.91687700       0.92966400
         0.93320600       0.82879200       0.95912600       0.97986200       1.05166100       0.96698900       0.76869200       0.79204600       0.83408800       0.76201300       0.82864500       0.82737500       0.76276500       0.94677100       0.90633600       0.66460600       0.75424600       0.86875200       0.98314600       0.86581400
         0.95506600       0.71794100       0.85126500       0.79969200       0.70411700       0.79295300       0.75994000       0.79461200       0.81485600       0.74746400       0.75957700       0.79081900       0.81742200       0.95351000       0.85457400       0.74992600       0.81508000       0.94729000       0.94020500       0.87462700
         0.97623400       0.79735100       0.80223300       0.70550800       0.68578300       0.77201000       0.75483400       0.75409100       0.78441700       0.80045300       0.62194200       0.69921800       0.76157300       0.76013900       0.69701500       0.81590100       0.82893900       0.77185400       0.76570300       0.99152600
         0.94210600       0.77703000       0.81416400       0.98159000       0.94392000       0.93942700       0.97200000       0.69129500       0.75129100       0.74645300       0.58261300       0.72911200       0.84052500       0.78740600       0.79217600       0.86062200       0.70029800       0.72835200       0.84461200       0.93614400
         1.02168000       0.72232100       0.76369800       1.01865600       0.00000000       0.00000000       0.00000000       0.93450200       0.77975100       0.73161800       0.55585400       0.74343700       0.74449200       0.78306000       0.78746700       0.77281300       0.72863700       0.84032600       0.78322500       1.01364500
         0.93260200       0.81946900       0.78822700       0.93519400       0.00000000       0.00000000       0.00000000       0.00000000       1.00379500       0.73112500       0.64522700       0.73337200       0.71640300       0.75189600       0.79396400       0.80735600       0.86754200       0.76795800       0.81220300       0.98547800
         1.00932500       0.72856800       0.72781600       0.87635500       0.00000000       0.00000000       0.00000000       0.00000000       0.90011500       0.78487500       0.52550200       0.55247600       0.59662700       0.76003500       0.79624500       0.69370600       0.80479900       0.66631700       0.80197300       0.72272700
         1.01260800       0.82531000       0.76642800       0.87177600       0.00000000       0.00000000       0.00000000       0.00000000       0.94210600       0.77779900       0.63497100       0.65184500       0.60223400       0.69622900       0.80374500       0.53923100       0.90210200       0.70530100       0.79455200       0.89216600
         0.92543000       0.83597200       0.74444800       0.92664000       0.00000000       0.00000000       0.00000000       0.00000000       0.95722600       0.77734900       0.52817200       0.80027100       0.72076600       0.81958200       0.78903100       0.76705100       0.73350100       0.79227100       0.69829300       0.73858200
         0.93744000       0.75817700       0.70296800       1.02124800       0.00000000       0.00000000       0.00000000       0.00000000       0.89674600       0.75760700       0.60785000       0.59547700       0.57041300       0.79019700       0.86252300       0.67842100       0.83899600       0.75106700       0.85938600       0.75137800
         0.95135000       0.74137200       0.75313200       1.04189800       0.00000000       0.00000000       0.00000000       0.00000000       0.76566000       0.73224000       0.48475600       0.64991800       0.61885700       0.60164600       0.60219100       0.63236200       0.60493800       0.71685200       0.76822600       1.01848300
         0.89303000       0.79423200       0.79892300       0.90961900       0.00000000       0.00000000       0.00000000       0.00000000       0.76390600       0.58145500       0.41007200       0.56787300       0.62887100       0.60437700       0.62155300       0.58601700       0.66420000       0.81680800       0.80959400       0.91048300
         0.99688300       0.79078500       0.79191600       0.97018600       0.00000000       0.00000000       0.00000000       0.00000000       0.69630600       0.63213700       0.42039600       0.65151600       0.61794100       0.62633100       0.58082400       0.54058700       0.56451200       0.77388500       0.78086600       1.02349400
         0.94089600       0.72430800       0.82331400       0.89000600       0.00000000       0.00000000       0.00000000       0.00000000       0.71322300       0.66808800       0.45468000       0.49103700       0.63112600       0.62071500       0.63671600       0.66297300       0.62798100       0.74082800       0.76960800       0.97312300
         0.94314200       0.80326900       0.81845900       0.89743700       0.00000000       0.00000000       0.00000000       0.00000000       0.70496400       0.56064100       0.47120800       0.35103500       0.51626600       0.61096000       0.65213900       0.65629400       0.58750300       0.76119300       0.87013400       0.96284200
         0.94789400       0.79622800       0.72388500       0.96284200       0.00000000       0.00000000       0.00000000       0.00000000       0.84538900       0.64124400       0.41274100       0.38854100       0.51182500       0.60582000       0.60427300       0.65591400       0.59552900       0.75860900       0.75362400       0.96750700
         0.99904300       0.72817900       0.78912600       1.05451200       0.00000000       0.00000000       0.00000000       0.00000000       0.77509400       0.60078200       0.43181000       0.44920200       0.33019500       0.68365700       0.60454900       0.59547700       0.58075500       0.69364500       0.71585900       0.94115500
         0.95618900       0.78433100       0.83226500       1.00630100       0.00000000       0.00000000       0.97744300       0.95402900       0.76972900       0.61432100       0.44271400       0.35672800       0.42056900       0.59491600       0.62642600       0.57026600       0.62044700       0.81482100       0.76205700       0.89216600
         0.91912300       0.78730300       0.71552200       0.99308200       0.94253800       0.00000000       0.97986200       0.72514700       0.74621100       0.58178300       0.41294900       0.39051900       0.33701200       0.66197100       0.61172100       0.63639700       0.46129000       0.67046400       0.74996900       0.94590700
         0.98098600       0.82391900       0.75416000       0.76373300       0.88801900       0.95040000       0.84132900       0.73195500       0.85683700       0.62309100       0.43762500       0.45377300       0.40596800       0.62895700       0.64252200       0.44562500       0.65314100       0.59926200       0.82196600       0.77108500
         0.97839400       0.79546800       0.79225300       0.80043600       0.79355800       0.78556600       0.77036800       0.71834700       0.56308600       0.66816600       0.45515500       0.44429500       0.35910400       0.58208500       0.65994900       0.41160100       0.61433900       0.65501600       0.80818600       0.81298900
         0.98686100       0.78838300       0.82874000       0.58195600       0.78776900       0.73020100       0.77095600       0.82047200       0.60035900       0.60494700       0.41581700       0.42745500       0.41127300       0.67086100       0.65206900       0.41476300       0.66782000       0.68237000       0.81571100       0.76419100
         1.01520000       0.72393700       0.85613800       0.79200300       0.57365300       0.75558500       0.77679600       0.56219600       0.59396500       0.45097300       0.14850400       0.46264600       0.39856300       0.42379200       0.43072100       0.39040700       0.53464300       0.54151200       0.63055600       0.82004000
         0.87445400       0.92871400       0.72459400       0.76664400       0.79762700       0.71744800       0.52762800       0.47322100       0.59584000       0.34122000       0.34534900       0.42186500       0.43708900       0.40463700       0.42331700       0.39137500       0.45102500       0.60721900       0.62079300       0.68306100
         0.90538600       0.95454700       0.78562700       0.78138400       0.83537600       0.63542000       0.48866100       0.11483400       0.60107600       0.52787800       0.28095600       0.47024900       0.45137900       0.37049200       0.46893600       0.23264900       0.40414500       0.41910900       0.63817600       0.66534000
         0.88395800       1.00785600       0.84165700       0.84514800       0.86317900       0.65765900       0.13740200       0.16098000       0.13482700       0.28608800       0.21530900       0.43049700       0.47062900       0.40621800       0.43881700       0.23488700       0.32438000       0.43479100       0.44705100       0.52157100
         0.95739800       0.73657700       0.73577400       0.79637500       0.62695300       0.33880900       0.25564000       0.17002700       0.28400500       0.21364100       0.27022500       0.41759700       0.47519100       0.43207800       0.28816100       0.13995100       0.22868400       0.18068800       0.39987600       0.41689700
         0.94409300       0.74494900       0.75207700       0.78289600       0.83088300       0.57279700       0.07525900       0.23941400       0.24789900       0.30922600       0.23027300       0.29294800       0.47363600       0.46160900       0.15870000       0.16054000       0.21133400       0.18786000       0.44794100       0.49731800
         0.00000000       0.78769200       0.76300700       0.77468000       0.76194400       0.74298000       0.59579700       0.41262000       0.03469400       0.22926200       0.21267400       0.17356000       0.15952900       0.51821000       0.43478200       0.39044200       0.22295500       0.39483900       0.41222300       0.64800000
         0.00000000       0.00000000       0.70346900       0.77360000       0.84351500       0.56636100       0.61598000       0.45551800       0.34031200       0.32971100       0.21518800       0.21917100       0.15327400       0.44227300       0.37878600       0.43977600       0.36784800       0.49564200       0.57415400       0.78134100
         0.00000000       0.00000000       0.00000000       0.57182100       0.66049300       0.55852400       0.52679800       0.66866700       0.34692200       0.22725800       0.19186000       0.12420900       0.33537900       0.39557400       0.42253100       0.46616300       0.42819000       0.40103400       0.66306800       0.76496000
         0.00000000       0.00000000       0.00000000       0.00000000       0.64356800       0.64080300       0.61579000       0.45245100       0.42212400       0.13726400       0.21996600       0.18258000       0.23258000       0.46436500       0.42925200       0.40453300       0.40712500       0.57662500       0.87557800       0.00000000
         0.00000000       0.00000000       0.00000000       0.00000000       0.75343400       0.61986800       0.55932800       0.46773500       0.44375000       0.22363800       0.22703300       0.25659900       0.17566000       0.44628200       0.35373000       0.44022500       0.64227200       0.61447700       0.76075200       0.00000000
         0.00000000       0.00000000       0.00000000       0.00000000       0.00000000       0.64310100       0.59598700       0.41312200       0.53724400       0.13742800       0.17617800       0.23486100       0.14917800       0.17998800       0.24663700       0.47120800       0.43845400       0.54511500       0.00000000       0.00000000
         0.00000000       0.00000000       0.00000000       0.00000000       0.00000000       0.59438000       0.68042600       0.56454600       0.45430000       0.20144200       0.21074700       0.25272000       0.23781600       0.15524400       0.28219100       0.36664700       0.54799200       0.00000000       0.00000000       0.00000000
         0.00000000       0.00000000       0.00000000       0.00000000       0.00000000       0.81864900       0.45922500       0.44139200       0.22801000       0.24732000       0.20637500       0.13910400       0.15461300       0.13122400       0.39884800       0.00000000       0.00000000       0.00000000       0.00000000       0.00000000
END griddata

